225
FeMoco
Fe    10.114690   -7.703790   55.997150
Fe    12.592775   -8.339455   55.593136
Fe    11.356470   -7.022600   53.763435
Fe    11.989671   -5.848783   55.995784
Fe    14.842328   -7.594401   54.593006
Fe    13.612667   -6.211558   52.817352
Fe    14.234095   -5.136327   54.988659
Mo    16.077071   -5.653495   53.244568
C     13.102740   -6.709656   54.635949
S     11.807082   -7.458315   57.529824
S     16.171063   -6.063151   55.523514
S      9.960555   -5.706635   54.999953
S     13.080692   -4.002049   56.434792
S     14.474498   -9.492158   55.653370
S     14.345906   -4.097768   53.045264
S     10.859698   -9.137724   54.335204
S     15.240920   -7.632743   52.391762
S     11.782288   -6.521044   51.634265
S      8.472275   -8.499543   57.326499
C     13.316384   -2.413022   49.965591
N     12.425824   -3.225190   50.780743
C     11.214124   -2.866263   51.225022
N     10.617098   -1.750139   50.745069
N     10.601417   -3.600968   52.165990
C     15.063349   -1.104757   59.472637
C     16.188172   -0.874018   58.459017
C     17.508370   -1.552718   58.851301
O     17.846567   -1.662403   60.041149
N     18.260644   -1.971887   57.810564
C      8.309011   -1.265150   60.668388
C      9.374563   -2.061132   59.971486
N      9.875068   -3.240159   60.503655
C      9.991673   -1.799698   58.749682
C     10.769159   -3.680906   59.620493
N     10.872615   -2.844130   58.547194
C      8.218378   -4.722853   49.893699
C      7.616688   -4.456436   51.253789
C      6.932230   -3.258140   51.549364
C      7.714039   -5.417041   52.289939
C      6.363728   -3.027760   52.816367
C      7.145403   -5.207436   53.550653
C      6.462765   -4.004559   53.826707
O      5.935693   -3.849413   55.071069
N      5.189974  -10.309180   55.594579
C      6.173738   -9.891618   56.595389
C      5.372065   -9.531258   57.863129
O      4.442077   -8.724396   57.807398
C      7.068687   -8.715081   56.169104
N      5.716086  -10.192512   59.005750
C     18.209415   -9.757026   57.686986
O     19.094079   -9.519956   58.511731
N     17.022321   -9.107395   57.576854
C     16.598814   -8.045138   58.475762
C     15.682461   -8.583320   59.581185
O     16.125776   -9.030411   60.643646
N     14.347209   -8.554528   59.278089
C     13.348425   -8.982731   60.229504
C     12.513295  -10.226553   59.894688
O     11.820462  -10.754613   60.773442
N     12.566638  -10.670934   58.603392
C     11.638728  -11.692323   58.154002
C     12.246939  -12.884970   57.402563
O     11.818778  -14.037342   57.567835
N     13.244929  -12.587316   56.525002
C     13.844459  -13.595855   55.652239
C     14.385877  -12.950584   54.370619
C     13.298223  -12.256689   53.530919
C     13.906853  -11.237475   52.565863
N     12.863176  -10.515558   51.830452
C     13.085663   -9.875832   50.675674
N     14.352179   -9.731156   50.219331
N     12.048040   -9.448131   49.915097
O     22.411739   -6.803003   47.266653
C     18.105430   -7.432453   50.611331
C     18.655893   -7.288474   51.993059
N     18.048628   -6.623504   53.059307
C     19.899455   -7.698697   52.420946
C     18.924365   -6.615980   54.069419
N     20.044831  -7.265925   53.720731
C     17.605447   -1.196886   54.030510
C     17.113047   -1.730929   52.686509
C     17.733656   -3.116261   52.428623
C     19.274227   -3.030538   52.305364
C     19.850566   -4.143129   51.438790
C     21.327351   -4.462273   51.592237
C     17.145550   -3.744169   51.164338
O     17.454147   -1.970150   55.018923
O     18.139272   -0.052009   54.084097
O     21.897733   -4.945974   50.553215
O     21.890332   -4.309169   52.702098
O     16.609054   -4.901531   51.303459
O     17.251489   -3.161760   50.073394
O     17.404062   -3.972800   53.533269
O     15.606667   -5.093831   47.074467
O     20.552808   -3.046822   45.680199
O     20.972620   -2.045375   56.442518
O     14.512807   -5.469426   49.697130
O     21.343511   -7.627457   49.656651
O     20.916164   -4.711191   48.061396
O     18.255575   -4.325647   47.685024
O     23.742744   -5.613666   54.168320
O     18.533916   -0.792434   49.483149
O     20.524911   -4.348752   55.182937
O     20.000088    0.412451   55.962220
O     19.851302    2.019696   49.636455
O     19.539557    0.461747   51.901217
H     14.082119   -3.083444   49.569066
H     13.793218   -1.622571   50.558625
H     12.780072   -1.969227   49.118590
H     12.794102   -4.108348   51.142286
H     11.168526   -1.085199   50.221246
H      9.605516   -3.487506   52.320064
H     10.973545   -4.542895   52.353388
H     14.196153   -0.475855   59.240593
H     15.421767   -0.867723   60.480642
H     14.734345   -2.150516   59.460517
H     15.887702   -1.201002   57.455680
H     16.412015    0.201199   58.387689
H     17.955102   -1.873349   56.838672
H     19.211769   -2.294214   57.950835
H      7.965700   -0.438038   60.037629
H      8.678701   -0.845491   61.614178
H      7.447731   -1.901971   60.907126
H     11.482411   -3.012299   57.741284
H      9.872795   -0.997976   58.031776
H     11.351522   -4.592883   59.694272
H      8.453303   -3.787070   49.373475
H      7.525925   -5.293520   49.259433
H      9.143064   -5.305236   49.986314
H      6.839920   -2.488806   50.782559
H      8.275183   -6.334345   52.117263
H      5.845810   -2.090325   53.020647
H      7.249860   -5.944614   54.340567
H      5.543892   -2.969166   55.147792
H      5.649599  -10.370942   54.686968
H      4.501028   -9.558595   55.518842
H      6.831217  -10.743910   56.814400
H      6.468417   -7.798214   56.119465
H      7.459995   -8.929901   55.167331
H      6.623268  -10.639433   59.056480
H      5.324737   -9.851313   59.876143
H     18.317133  -10.542839   56.912461
H     16.352499   -9.390198   56.857610
H     16.094033   -7.270201   57.889125
H     17.488381   -7.628146   58.954766
H     14.034563   -8.091914   58.425492
H     12.624934   -8.176437   60.407619
H     13.865966   -9.191294   61.170720
H     13.027368  -10.073981   57.917589
H     11.140540  -12.084535   59.042750
H     10.872892  -11.239997   57.504121
H     13.577054  -11.627095   56.430974
H     14.660159  -14.115832   56.174909
H     13.071802  -14.343027   55.435902
H     15.141569  -12.203910   54.653177
H     14.899350  -13.718308   53.777482
H     12.698266  -12.994420   52.981507
H     12.620815  -11.712194   54.203849
H     14.506300  -10.521813   53.148042
H     14.552750  -11.729081   51.828272
H     12.023266  -10.256792   52.357305
H     14.490273   -9.241918   49.344006
H     15.079424   -9.588522   50.915230
H     12.180366   -8.558434   49.444100
H     23.330393   -6.508674   47.274983
H     21.870864   -5.991776   47.429496
H     18.923895   -7.737699   49.951116
H     17.689554   -6.489805   50.248734
H     17.303605   -8.180622   50.566094
H     20.672830   -8.222694   51.880811
H     18.800442   -6.103657   55.011499
H     16.022399   -1.841622   52.740985
H     17.365627   -1.063541   51.859719
H     19.541736   -2.052939   51.891630
H     19.666519   -3.103262   53.325669
H     19.345799   -5.086962   51.684290
H     19.645966   -3.944853   50.383027
H     16.557081   -4.977546   47.260968
H     15.208364   -5.293913   47.939992
H     20.658905   -3.872120   45.187612
H     19.678178   -3.153620   46.096736
H     21.766644   -1.921646   56.975942
H     20.618708   -1.136051   56.260836
H     15.292492   -5.309726   50.274751
H     13.894989   -5.984554   50.245236
H     21.828538   -7.494733   48.814308
H     21.375800   -6.743019   50.065050
H     21.275608   -4.650431   48.993884
H     21.104793   -3.887330   47.577359
H     19.135600   -4.673373   47.939202
H     17.901770   -3.886790   48.484840
H     24.495630   -5.834248   53.604850
H     23.124168   -5.114465   53.571260
H     18.927022   -0.501383   50.325306
H     18.071230   -1.626023   49.696796
H     20.687106   -3.478572   55.600582
H     20.984751   -4.311914   54.324709
H     20.609893    0.870359   55.368459
H     19.201791    0.248679   55.392978
H     19.367425    1.360195   49.117838
H     19.720233    1.683846   50.542538
H     20.409897    0.153968   52.186029
H     18.950918    0.359428   52.702384
H     20.888560   -7.383400   54.327013
H      9.833968   -1.368058   51.257433
H     11.130253   -9.531265   50.337970
C     23.423591   -8.025902   52.090595
C     24.594596   -7.467753   51.291413
O     25.669951   -8.083136   51.178192
N     24.384662   -6.235359   50.751332
C     25.386619   -5.627016   49.892543
C     24.767845   -4.525655   49.023980
O     22.298862   -7.556026   55.236596
H     17.346543   -3.350389   54.345803
H     23.080988   -7.317130   52.842857
H     23.739240   -8.957282   52.567397
H     22.607203   -8.212979   51.383416
H     23.453909   -5.788887   50.794369
H     26.204923   -5.207831   50.498231
H     25.838195   -6.411758   49.270537
H     24.340503   -3.729918   49.643640
H     23.952123   -4.935911   48.419877
H     25.522670   -4.092421   48.358913
H     22.888649   -6.825622   54.914125
H     22.782379   -8.370279   55.048978
