   39
FeMoCo model extracted from XRay data of Dattani and Chopped by Li Manni Jan 2019
Fe 10.018000  -7.568000 56.109001
Fe 12.528000  -8.326000 55.692001
Fe 11.277000  -6.902000 53.853001
Fe 11.990000  -5.771000 56.166000
Fe 14.820000  -7.601000 54.671001
Fe 13.550000  -6.198000 52.848999
Fe 14.226000  -5.072000 55.094002
Mo 16.132000  -5.638000 53.306000
C  13.044000  -6.665000 54.723999
S  11.719000  -7.459000 57.646000
S  10.001000  -5.522000 55.134998
S  10.718000  -8.998000 54.466999
S  16.169001  -6.043000 55.618000
S  14.337000  -4.109000 53.098000
S  15.203000  -7.626000 52.453999
S  13.162000  -3.960000 56.627998
S  14.407000  -9.544000 55.750999
S  11.674000  -6.465000 51.712002
S   8.197000  -8.169000 57.320999
C   6.936000  -8.649000 56.117001
H   6.237039  -7.808570 55.941648
H   7.401622  -8.936745 55.157491
H   6.350690  -9.508243 56.491352
N  18.159000  -6.788000 53.228001
C  18.711000  -7.463000 52.162998
H  18.325927  -7.394832 51.145564
C  19.879999  -8.011000 52.627998
H  20.628332  -8.602807 52.103837
N  20.003000  -7.668000 53.919998
H  20.831763  -7.852887 54.530690
C  18.976999  -6.904000 54.275002
H  18.853442  -6.425326 55.245736
O  16.628000  -4.810000 51.337002
C  17.111000  -3.651000 51.271999
O  17.166000  -2.989000 50.195999
C  17.757999  -3.064000 52.515999
H  18.836854  -3.004453 52.372385
H  17.319738  -2.092205 52.743246
O  17.490000  -3.979000 53.599998
